Networks/MV_SemiUrban/SemiUrban_Consumers4.txt
New Line.Consumer4_1 Bus1=4_49.1 Bus2=Consumer4_1.1 Length=0.21 units=km Linecode=Line_25
New Line.Consumer4_2 Bus1=4_64.2 Bus2=Consumer4_2.1 Length=0.21 units=km Linecode=Line_25
New Line.Consumer4_3 Bus1=4_79.3 Bus2=Consumer4_3.1 Length=0.21 units=km Linecode=Line_25
New Line.Consumer4_4 Bus1=4_94.1 Bus2=Consumer4_4.1 Length=0.21 units=km Linecode=Line_25
New Line.Consumer4_5 Bus1=4_109.2 Bus2=Consumer4_5.1 Length=0.21 units=km Linecode=Line_25
New Line.Consumer4_6 Bus1=4_124.3 Bus2=Consumer4_6.1 Length=0.21 units=km Linecode=Line_25
New Line.Consumer4_7 Bus1=4_139.1 Bus2=Consumer4_7.1 Length=0.21 units=km Linecode=Line_25
New Line.Consumer4_8 Bus1=4_154.2 Bus2=Consumer4_8.1 Length=0.21 units=km Linecode=Line_25
New Line.Consumer4_9 Bus1=4_169.3 Bus2=Consumer4_9.1 Length=0.21 units=km Linecode=Line_25
New Line.Consumer4_10 Bus1=4_184.1 Bus2=Consumer4_10.1 Length=0.21 units=km Linecode=Line_25
New Line.Consumer4_11 Bus1=4_199.2 Bus2=Consumer4_11.1 Length=0.21 units=km Linecode=Line_25
New Line.Consumer4_12 Bus1=4_215.3 Bus2=Consumer4_12.1 Length=0.21 units=km Linecode=Line_25


New Line.Consumer4_13 Bus1=4_330.1 Bus2=Consumer4_13.1 Length=0.21 units=km Linecode=Line_25
New Line.Consumer4_14 Bus1=4_334.2 Bus2=Consumer4_14.1 Length=0.21 units=km Linecode=Line_25
New Line.Consumer4_15 Bus1=4_338.3 Bus2=Consumer4_15.1 Length=0.21 units=km Linecode=Line_25
New Line.Consumer4_16 Bus1=4_342.1 Bus2=Consumer4_16.1 Length=0.21 units=km Linecode=Line_25
New Line.Consumer4_17 Bus1=4_346.2 Bus2=Consumer4_17.1 Length=0.21 units=km Linecode=Line_25
New Line.Consumer4_18 Bus1=4_350.3 Bus2=Consumer4_18.1 Length=0.21 units=km Linecode=Line_25
New Line.Consumer4_19 Bus1=4_354.1 Bus2=Consumer4_19.1 Length=0.21 units=km Linecode=Line_25
New Line.Consumer4_20 Bus1=4_358.2 Bus2=Consumer4_20.1 Length=0.21 units=km Linecode=Line_25
New Line.Consumer4_21 Bus1=4_362.3 Bus2=Consumer4_21.1 Length=0.21 units=km Linecode=Line_25
New Line.Consumer4_22 Bus1=4_366.1 Bus2=Consumer4_22.1 Length=0.21 units=km Linecode=Line_25
New Line.Consumer4_23 Bus1=4_370.2 Bus2=Consumer4_23.1 Length=0.21 units=km Linecode=Line_25
New Line.Consumer4_24 Bus1=4_374.3 Bus2=Consumer4_24.1 Length=0.21 units=km Linecode=Line_25
New Line.Consumer4_25 Bus1=4_378.1 Bus2=Consumer4_25.1 Length=0.21 units=km Linecode=Line_25
New Line.Consumer4_26 Bus1=4_382.2 Bus2=Consumer4_26.1 Length=0.21 units=km Linecode=Line_25
New Line.Consumer4_27 Bus1=4_386.3 Bus2=Consumer4_27.1 Length=0.21 units=km Linecode=Line_25
New Line.Consumer4_28 Bus1=4_390.1 Bus2=Consumer4_28.1 Length=0.21 units=km Linecode=Line_25
New Line.Consumer4_29 Bus1=4_394.2 Bus2=Consumer4_29.1 Length=0.21 units=km Linecode=Line_25
New Line.Consumer4_30 Bus1=4_398.3 Bus2=Consumer4_30.1 Length=0.21 units=km Linecode=Line_25
New Line.Consumer4_31 Bus1=4_402.1 Bus2=Consumer4_31.1 Length=0.21 units=km Linecode=Line_25
New Line.Consumer4_32 Bus1=4_406.2 Bus2=Consumer4_32.1 Length=0.21 units=km Linecode=Line_25
New Line.Consumer4_33 Bus1=4_410.3 Bus2=Consumer4_33.1 Length=0.21 units=km Linecode=Line_25
New Line.Consumer4_34 Bus1=4_414.1 Bus2=Consumer4_34.1 Length=0.21 units=km Linecode=Line_25
New Line.Consumer4_35 Bus1=4_418.2 Bus2=Consumer4_35.1 Length=0.21 units=km Linecode=Line_25
New Line.Consumer4_36 Bus1=4_422.3 Bus2=Consumer4_36.1 Length=0.21 units=km Linecode=Line_25
New Line.Consumer4_37 Bus1=4_426.1 Bus2=Consumer4_37.1 Length=0.21 units=km Linecode=Line_25
New Line.Consumer4_38 Bus1=4_430.2 Bus2=Consumer4_38.1 Length=0.21 units=km Linecode=Line_25
New Line.Consumer4_39 Bus1=4_434.3 Bus2=Consumer4_39.1 Length=0.21 units=km Linecode=Line_25 
New Line.Consumer4_40 Bus1=4_438.1 Bus2=Consumer4_40.1 Length=0.21 units=km Linecode=Line_25 
New Line.Consumer4_41 Bus1=4_442.2 Bus2=Consumer4_41.1 Length=0.21 units=km Linecode=Line_25 
New Line.Consumer4_42 Bus1=4_448.3 Bus2=Consumer4_42.1 Length=0.21 units=km Linecode=Line_25 
New Line.Consumer4_43 Bus1=4_452.1 Bus2=Consumer4_43.1 Length=0.21 units=km Linecode=Line_25 
New Line.Consumer4_44 Bus1=4_456.2 Bus2=Consumer4_44.1 Length=0.21 units=km Linecode=Line_25 
New Line.Consumer4_45 Bus1=4_460.3 Bus2=Consumer4_45.1 Length=0.21 units=km Linecode=Line_25 
New Line.Consumer4_46 Bus1=4_464.1 Bus2=Consumer4_46.1 Length=0.21 units=km Linecode=Line_25 
New Line.Consumer4_47 Bus1=4_468.2 Bus2=Consumer4_47.1 Length=0.21 units=km Linecode=Line_25 
New Line.Consumer4_48 Bus1=4_472.3 Bus2=Consumer4_48.1 Length=0.21 units=km Linecode=Line_25 
New Line.Consumer4_49 Bus1=4_476.1 Bus2=Consumer4_49.1 Length=0.21 units=km Linecode=Line_25 
New Line.Consumer4_50 Bus1=4_480.2 Bus2=Consumer4_50.1 Length=0.21 units=km Linecode=Line_25 
New Line.Consumer4_51 Bus1=4_484.3 Bus2=Consumer4_51.1 Length=0.21 units=km Linecode=Line_25 


New Line.Consumer4_52 Bus1=4_609.1 Bus2=Consumer4_52.1 Length=0.21 units=km Linecode=Line_25
New Line.Consumer4_53 Bus1=4_614.2 Bus2=Consumer4_53.1 Length=0.21 units=km Linecode=Line_25 
New Line.Consumer4_54 Bus1=4_619.3 Bus2=Consumer4_54.1 Length=0.21 units=km Linecode=Line_25
New Line.Consumer4_55 Bus1=4_624.1 Bus2=Consumer4_55.1 Length=0.21 units=km Linecode=Line_25 
New Line.Consumer4_56 Bus1=4_629.2 Bus2=Consumer4_56.1 Length=0.21 units=km Linecode=Line_25 
New Line.Consumer4_57 Bus1=4_634.3 Bus2=Consumer4_57.1 Length=0.21 units=km Linecode=Line_25 
New Line.Consumer4_58 Bus1=4_639.1 Bus2=Consumer4_58.1 Length=0.21 units=km Linecode=Line_25 
New Line.Consumer4_59 Bus1=4_644.2 Bus2=Consumer4_59.1 Length=0.21 units=km Linecode=Line_25 
New Line.Consumer4_60 Bus1=4_649.3 Bus2=Consumer4_60.1 Length=0.21 units=km Linecode=Line_25 
New Line.Consumer4_61 Bus1=4_654.1 Bus2=Consumer4_61.1 Length=0.21 units=km Linecode=Line_25 
New Line.Consumer4_62 Bus1=4_659.2 Bus2=Consumer4_62.1 Length=0.21 units=km Linecode=Line_25 
New Line.Consumer4_63 Bus1=4_664.3 Bus2=Consumer4_63.1 Length=0.21 units=km Linecode=Line_25 
New Line.Consumer4_64 Bus1=4_669.1 Bus2=Consumer4_64.1 Length=0.21 units=km Linecode=Line_25 
New Line.Consumer4_65 Bus1=4_674.2 Bus2=Consumer4_65.1 Length=0.21 units=km Linecode=Line_25 
New Line.Consumer4_66 Bus1=4_679.3 Bus2=Consumer4_66.1 Length=0.21 units=km Linecode=Line_25 
New Line.Consumer4_67 Bus1=4_684.1 Bus2=Consumer4_67.1 Length=0.21 units=km Linecode=Line_25 
New Line.Consumer4_68 Bus1=4_689.2 Bus2=Consumer4_68.1 Length=0.21 units=km Linecode=Line_25 
New Line.Consumer4_69 Bus1=4_694.3 Bus2=Consumer4_69.1 Length=0.21 units=km Linecode=Line_25 
New Line.Consumer4_70 Bus1=4_699.1 Bus2=Consumer4_70.1 Length=0.21 units=km Linecode=Line_25 
New Line.Consumer4_71 Bus1=4_704.2 Bus2=Consumer4_71.1 Length=0.21 units=km Linecode=Line_25 
New Line.Consumer4_72 Bus1=4_709.3 Bus2=Consumer4_72.1 Length=0.21 units=km Linecode=Line_25 
New Line.Consumer4_73 Bus1=4_714.1 Bus2=Consumer4_73.1 Length=0.21 units=km Linecode=Line_25 
New Line.Consumer4_74 Bus1=4_719.2 Bus2=Consumer4_74.1 Length=0.21 units=km Linecode=Line_25 
New Line.Consumer4_75 Bus1=4_724.3 Bus2=Consumer4_75.1 Length=0.21 units=km Linecode=Line_25 
New Line.Consumer4_76 Bus1=4_729.1 Bus2=Consumer4_76.1 Length=0.21 units=km Linecode=Line_25 
New Line.Consumer4_77 Bus1=4_734.2 Bus2=Consumer4_77.1 Length=0.21 units=km Linecode=Line_25 
New Line.Consumer4_78 Bus1=4_739.3 Bus2=Consumer4_78.1 Length=0.21 units=km Linecode=Line_25 
New Line.Consumer4_79 Bus1=4_744.1 Bus2=Consumer4_79.1 Length=0.21 units=km Linecode=Line_25 
New Line.Consumer4_80 Bus1=4_749.2 Bus2=Consumer4_80.1 Length=0.21 units=km Linecode=Line_25 
New Line.Consumer4_81 Bus1=4_754.3 Bus2=Consumer4_81.1 Length=0.21 units=km Linecode=Line_25 
New Line.Consumer4_82 Bus1=4_759.1 Bus2=Consumer4_82.1 Length=0.21 units=km Linecode=Line_25  
New Line.Consumer4_83 Bus1=4_764.2 Bus2=Consumer4_83.1 Length=0.21 units=km Linecode=Line_25 
New Line.Consumer4_84 Bus1=4_769.3 Bus2=Consumer4_84.1 Length=0.21 units=km Linecode=Line_25

New Line.Consumer4_85 Bus1=4_797.2 Bus2=Consumer4_85.1 Length=0.21 units=km Linecode=Line_25 
New Line.Consumer4_86 Bus1=4_802.3 Bus2=Consumer4_86.1 Length=0.21 units=km Linecode=Line_25 
New Line.Consumer4_87 Bus1=4_807.1 Bus2=Consumer4_87.1 Length=0.21 units=km Linecode=Line_25 
New Line.Consumer4_88 Bus1=4_812.2 Bus2=Consumer4_88.1 Length=0.21 units=km Linecode=Line_25 
New Line.Consumer4_89 Bus1=4_817.3 Bus2=Consumer4_89.1 Length=0.21 units=km Linecode=Line_25 
New Line.Consumer4_90 Bus1=4_822.1 Bus2=Consumer4_90.1 Length=0.21 units=km Linecode=Line_25 
New Line.Consumer4_91 Bus1=4_827.2 Bus2=Consumer4_91.1 Length=0.21 units=km Linecode=Line_25 
New Line.Consumer4_92 Bus1=4_832.3 Bus2=Consumer4_92.1 Length=0.21 units=km Linecode=Line_25 
New Line.Consumer4_93 Bus1=4_837.1 Bus2=Consumer4_93.1 Length=0.21 units=km Linecode=Line_25 
New Line.Consumer4_94 Bus1=4_842.2 Bus2=Consumer4_94.1 Length=0.21 units=km Linecode=Line_25 
New Line.Consumer4_95 Bus1=4_847.3 Bus2=Consumer4_95.1 Length=0.21 units=km Linecode=Line_25 
New Line.Consumer4_96 Bus1=4_852.1 Bus2=Consumer4_96.1 Length=0.21 units=km Linecode=Line_25 
New Line.Consumer4_97 Bus1=4_857.2 Bus2=Consumer4_97.1 Length=0.21 units=km Linecode=Line_25 
New Line.Consumer4_98 Bus1=4_862.3 Bus2=Consumer4_98.1 Length=0.21 units=km Linecode=Line_25 
New Line.Consumer4_99 Bus1=4_867.1 Bus2=Consumer4_99.1 Length=0.21 units=km Linecode=Line_25 
New Line.Consumer4_100 Bus1=4_872.2 Bus2=Consumer4_100.1 Length=0.21 units=km Linecode=Line_25 
New Line.Consumer4_101 Bus1=4_877.3 Bus2=Consumer4_101.1 Length=0.21 units=km Linecode=Line_25 
New Line.Consumer4_102 Bus1=4_882.1 Bus2=Consumer4_102.1 Length=0.21 units=km Linecode=Line_25  
New Line.Consumer4_103 Bus1=4_887.2 Bus2=Consumer4_103.1 Length=0.21 units=km Linecode=Line_25 
New Line.Consumer4_104 Bus1=4_892.3 Bus2=Consumer4_104.1 Length=0.21 units=km Linecode=Line_25  
New Line.Consumer4_105 Bus1=4_897.2 Bus2=Consumer4_105.1 Length=0.21 units=km Linecode=Line_25 
New Line.Consumer4_106 Bus1=4_902.3 Bus2=Consumer4_106.1 Length=0.21 units=km Linecode=Line_25 
New Line.Consumer4_107 Bus1=4_907.1 Bus2=Consumer4_107.1 Length=0.21 units=km Linecode=Line_25 
New Line.Consumer4_108 Bus1=4_912.2 Bus2=Consumer4_108.1 Length=0.21 units=km Linecode=Line_25 
New Line.Consumer4_109 Bus1=4_917.3 Bus2=Consumer4_109.1 Length=0.21 units=km Linecode=Line_25 
New Line.Consumer4_110 Bus1=4_922.1 Bus2=Consumer4_110.1 Length=0.21 units=km Linecode=Line_25 
New Line.Consumer4_111 Bus1=4_927.2 Bus2=Consumer4_111.1 Length=0.21 units=km Linecode=Line_25 
New Line.Consumer4_112 Bus1=4_932.3 Bus2=Consumer4_112.1 Length=0.21 units=km Linecode=Line_25 
New Line.Consumer4_113 Bus1=4_937.1 Bus2=Consumer4_113.1 Length=0.21 units=km Linecode=Line_25 
New Line.Consumer4_114 Bus1=4_942.2 Bus2=Consumer4_114.1 Length=0.21 units=km Linecode=Line_25 
New Line.Consumer4_115 Bus1=4_947.3 Bus2=Consumer4_115.1 Length=0.21 units=km Linecode=Line_25 
New Line.Consumer4_116 Bus1=4_952.1 Bus2=Consumer4_116.1 Length=0.21 units=km Linecode=Line_25 
New Line.Consumer4_117 Bus1=4_957.2 Bus2=Consumer4_117.1 Length=0.21 units=km Linecode=Line_25 

  
  
